180
#
C 1 0 0
C 0.4962730758 0.0609346717 1
C 0 0 2
C -0.4667902132 -0.1791839748 3
C -0.8829475929 -0.4694715628 4
C -1.228728066 -0.8603646545 5
C -1.486289651 -1.338261213 6
C -1.640147572 -1.886773951 7
C -1.67757871 -2.487112718 8
C -1.588966749 -3.118522835 9
C -1.368080573 -3.758770483 10
C -1.012279745 -4.384665292 11
C -0.5226423163 -4.972609477 12
C 0.09598823541 -5.499162323 13
C 0.8350386058 -5.941608412 14
C 1.682323793 -6.278517871 15
C 2.622246154 -6.490286982 16
C 3.636072152 -6.559647804 17
C 4.702282018 -6.472135955 18
C 5.796986061 -6.216506464 19
C 6.894399988 -5.785088487 20
C 7.967370395 -5.174070833 21
C 8.987940463 -4.383711468 22
C 9.927945044 -3.418465622 23
C 10.75962361 -2.287028599 24
C 11.45623903 -1.002291042 25
C 11.99268992 0.4187939604 26
C 12.34610426 1.955430813 27
C 12.49640205 3.583285626 28
C 12.42681552 5.274870235 29
C 12.12435565 7 30
C 11.5802149 8.726317836 31
C 10.79009701 10.41987556 32
C 9.754466061 12.0457624 33
C 8.478708228 13.56876954 34
C 6.973201319 14.95407849 35
C 5.253288904 16.16796078 36
C 3.339157419 17.17847571 37
C 1.255616527 17.9561529 38
C -0.9682151905 18.47464639 39
C -3.299315376 18.71134731 40
C -5.701248242 18.64794274 41
C -8.134732862 18.27090915 42
C -10.55828054 17.57192966 43
C -12.92889098 16.54822583 44
C -15.2027958 15.2027958 45
C -17.33623658 13.54455246 46
C -19.28626427 11.58835669 47
C -21.01154553 9.354942791 48
C -22.47316177 6.870735061 49
C -23.63538607 4.167556264 50
C -24.4664236 1.282230928 51
C -24.93910126 -1.743911844 52
C -25.03149318 -4.865629382 53
C -24.72746942 -8.034441854 54
C -24.01715636 -11.19938394 55
C -22.8972986 -14.30782013 56
C -21.37151394 -17.30631075 57
C -19.45043437 -20.14151441 58
C -17.15172816 -22.76111204 59
C -14.5 -25.11473671 60
C -11.52656829 -27.15489318 61
C -8.269120675 -28.83785088 62
C -4.771251184 -30.12449439 63
C -1.081884398 -30.98111564 64
C 2.745405897 -31.38013299 65
C 6.653174106 -31.30072322 66
C 10.58096502 -30.72935371 67
C 14.46624784 -29.66020353 68
C 18.24540767 -28.09546403 69
C 21.85477873 -26.04551107 70
C 25.23170271 -23.52894342 71
C 28.3155948 -20.57248383 72
C 31.0489996 -17.21074152 73
C 33.37861876 -13.48583736 74
C 35.25629266 -9.446895146 75
C 36.63991854 -5.149404736 76
C 37.49428857 -0.6544652414 77
C 37.79183202 3.972081604 78
C 37.51324749 8.660615592 79
C 36.64801221 13.33878559 80
C 35.19475771 17.93262474 81
C 33.1615029 22.36771614 82
C 30.565738 26.57039067 83
C 27.43435486 30.46893784 84
C 23.80342211 33.99480984 85
C 19.71780564 37.0837989 86
C 15.23063786 39.67716813 87
C 10.40264151 41.72271623 88
C 5.301316438 43.1757576 89
C 1.885956071e-14 44 90
C -5.423185782 44.16830375 91
C -10.8864853 43.66330768 92
C -16.3057417 42.47790941 93
C -21.59569189 40.61558927 94
C -26.67130429 38.09057006 95
C -31.4491385 34.9278068 96
C -35.84870506 31.16280388 97
C -39.79380348 26.84125937 98
C -43.21381642 22.01853924 99
C -46.04493842 16.75898702 100
C -48.23131821 11.13507719 101
C -49.72609477 5.226423163 102
C -50.49230861 -0.8813465251 103
C -50.50367151 -7.097828149 104
C -49.74518005 -13.32918082 105
C -48.21356044 -19.47954286 106
C -45.91753462 -25.45250506 107
C -42.8779007 -31.15261837 108
C -39.12742304 -36.48691226 109
C -34.71053092 -41.36639993 110
C -29.68282741 -45.70754595 111
C -24.11041307 -49.43367255 112
C -18.06903257 -52.47628095 113
C -11.64305469 -54.77626564 114
C -4.924299465 -56.28500044 115
C 1.989271312 -56.96527714 116
C 8.99498174 -56.79207958 117
C 15.98696664 -55.75317836 118
C 22.85777102 -53.84953393 119
C 29.5 -51.09549882 120
C 35.80799388 -47.51881285 121
C 41.67950223 -43.16038802 122
C 47.01733067 -38.07388366 123
C 51.73093387 -32.32507512 124
C 55.7379289 -25.9910231 125
C 58.96550401 -19.15905365 126
C 61.35169897 -11.92556221 127
C 62.84653517 -4.394657846 128
C 63.41297546 3.323333221 129
C 63.02769619 11.11348337 130
C 61.68165676 18.85797495 131
C 59.38045475 26.4378818 132
C 56.1444582 33.73499391 133
C 52.00870974 40.63365737 134
C 47.02260095 47.02260095 135
C 41.24931885 52.79672049 136
C 34.76507006 57.8587928 137
C 27.65809173 62.12109112 138
C 20.02746177 65.50687578 139
C 11.98172426 67.95173496 140
C 3.637348959 69.40475267 141
C -4.882953162 69.82948352 142
C -13.45203417 69.20471643 143
C -21.9402066 67.52501266 144
C -30.21720571 64.80100677 145
C -38.15418702 61.05946292 146
C -45.62572835 56.34308221 147
C -52.51180542 50.71006104 148
C -58.69970999 44.2334042 149
C -64.08587988 37 150
C -68.57761158 29.10946907 151
C -72.0946272 20.67280169 152
C -74.57046971 11.81080211 153
C -75.95370285 2.652361749 154
C -76.2088944 -6.66741432 155
C -75.31736526 -16.00920019 156
C -73.27768961 -25.23153197 157
C -70.10593561 -34.19294945 158
C -65.83563958 -42.75416425 159
C -60.51751101 -50.78022117 160
C -54.21886962 -58.14261928 161
C -47.02282018 -64.72135955 162
C -39.02717443 -70.40688642 163
C -30.34313407 -75.10189222 164
C -21.09375218 -78.72295484 165
C -11.41219428 -81.20198164 166
C -1.439823531 -82.48743485 167
C 8.675862451 -82.54531732 168
C 18.78341304 -81.35990041 169
C 28.72969204 -78.93418015 170
C 38.36219723 -75.29005129 171
C 47.5313968 -70.46819367 172
C 56.09304698 -64.52766911 173
C 63.91045499 -57.54523215 174
C 70.85665183 -49.61436174 175
C 76.81644058 -40.84402596 176
C 81.68828732 -31.35719559 177
C 85.38602391 -21.28912681 178
C 87.84033442 -10.78543689 179
